Data/networks/opendssNetworks/network_2/Feeder_2/Loads - Copy.txt
New Load.LOAD1 Phases=1 Bus1=217.3 kV=0.23 kW=1 PF=0.95
New Load.LOAD2 Phases=1 Bus1=263.1 kV=0.23 kW=1 PF=0.95
New Load.LOAD3 Phases=1 Bus1=312.1 kV=0.23 kW=1 PF=0.95
New Load.LOAD4 Phases=1 Bus1=377.3 kV=0.23 kW=1 PF=0.95
New Load.LOAD5 Phases=1 Bus1=378.3 kV=0.23 kW=1 PF=0.95
New Load.LOAD6 Phases=1 Bus1=392.2 kV=0.23 kW=1 PF=0.95
New Load.LOAD7 Phases=1 Bus1=409.2 kV=0.23 kW=1 PF=0.95
New Load.LOAD8 Phases=1 Bus1=429.2 kV=0.23 kW=1 PF=0.95
New Load.LOAD9 Phases=1 Bus1=440.2 kV=0.23 kW=1 PF=0.95
New Load.LOAD10 Phases=1 Bus1=489.2 kV=0.23 kW=1 PF=0.95
New Load.LOAD11 Phases=1 Bus1=500.2 kV=0.23 kW=1 PF=0.95
New Load.LOAD12 Phases=1 Bus1=528.2 kV=0.23 kW=1 PF=0.95
New Load.LOAD13 Phases=1 Bus1=540.2 kV=0.23 kW=1 PF=0.95
New Load.LOAD14 Phases=1 Bus1=560.3 kV=0.23 kW=1 PF=0.95
New Load.LOAD15 Phases=1 Bus1=573.3 kV=0.23 kW=1 PF=0.95
New Load.LOAD16 Phases=1 Bus1=574.1 kV=0.23 kW=1 PF=0.95
New Load.LOAD17 Phases=1 Bus1=586.2 kV=0.23 kW=1 PF=0.95
New Load.LOAD18 Phases=1 Bus1=595.2 kV=0.23 kW=1 PF=0.95
New Load.LOAD19 Phases=1 Bus1=626.1 kV=0.23 kW=1 PF=0.95
New Load.LOAD20 Phases=1 Bus1=648.3 kV=0.23 kW=1 PF=0.95
New Load.LOAD21 Phases=1 Bus1=649.1 kV=0.23 kW=1 PF=0.95
New Load.LOAD22 Phases=1 Bus1=650.2 kV=0.23 kW=1 PF=0.95
New Load.LOAD23 Phases=1 Bus1=651.3 kV=0.23 kW=1 PF=0.95
New Load.LOAD24 Phases=1 Bus1=652.1 kV=0.23 kW=1 PF=0.95
New Load.LOAD25 Phases=1 Bus1=654.2 kV=0.23 kW=1 PF=0.95
New Load.LOAD26 Phases=1 Bus1=693.2 kV=0.23 kW=1 PF=0.95
New Load.LOAD27 Phases=1 Bus1=702.1 kV=0.23 kW=1 PF=0.95
New Load.LOAD28 Phases=1 Bus1=712.2 kV=0.23 kW=1 PF=0.95
New Load.LOAD29 Phases=1 Bus1=737.1 kV=0.23 kW=1 PF=0.95
New Load.LOAD30 Phases=1 Bus1=758.3 kV=0.23 kW=1 PF=0.95
New Load.LOAD31 Phases=1 Bus1=815.1 kV=0.23 kW=1 PF=0.95
New Load.LOAD32 Phases=1 Bus1=838.3 kV=0.23 kW=1 PF=0.95
New Load.LOAD33 Phases=1 Bus1=855.3 kV=0.23 kW=1 PF=0.95
New Load.LOAD34 Phases=1 Bus1=859.1 kV=0.23 kW=1 PF=0.95
New Load.LOAD35 Phases=1 Bus1=903.2 kV=0.23 kW=1 PF=0.95
New Load.LOAD36 Phases=1 Bus1=907.1 kV=0.23 kW=1 PF=0.95
New Load.LOAD37 Phases=1 Bus1=913.3 kV=0.23 kW=1 PF=0.95
New Load.LOAD38 Phases=1 Bus1=918.2 kV=0.23 kW=1 PF=0.95
New Load.LOAD39 Phases=1 Bus1=935.2 kV=0.23 kW=1 PF=0.95
New Load.LOAD40 Phases=1 Bus1=941.2 kV=0.23 kW=1 PF=0.95
New Load.LOAD41 Phases=1 Bus1=942.1 kV=0.23 kW=1 PF=0.95
New Load.LOAD42 Phases=1 Bus1=954.2 kV=0.23 kW=1 PF=0.95
New Load.LOAD43 Phases=1 Bus1=970.2 kV=0.23 kW=1 PF=0.95
New Load.LOAD44 Phases=1 Bus1=977.1 kV=0.23 kW=1 PF=0.95
New Load.LOAD45 Phases=1 Bus1=990.3 kV=0.23 kW=1 PF=0.95
New Load.LOAD46 Phases=1 Bus1=1002.3 kV=0.23 kW=1 PF=0.95
New Load.LOAD47 Phases=1 Bus1=1013.1 kV=0.23 kW=1 PF=0.95
New Load.LOAD48 Phases=1 Bus1=1015.3 kV=0.23 kW=1 PF=0.95
New Load.LOAD49 Phases=1 Bus1=1024.1 kV=0.23 kW=1 PF=0.95
New Load.LOAD50 Phases=1 Bus1=1045.2 kV=0.23 kW=1 PF=0.95
New Load.LOAD51 Phases=1 Bus1=1051.3 kV=0.23 kW=1 PF=0.95
New Load.LOAD52 Phases=1 Bus1=1057.2 kV=0.23 kW=1 PF=0.95
New Load.LOAD53 Phases=1 Bus1=1063.1 kV=0.23 kW=1 PF=0.95
New Load.LOAD54 Phases=1 Bus1=1065.1 kV=0.23 kW=1 PF=0.95
New Load.LOAD55 Phases=1 Bus1=1073.2 kV=0.23 kW=1 PF=0.95
New Load.LOAD56 Phases=1 Bus1=1085.2 kV=0.23 kW=1 PF=0.95
New Load.LOAD57 Phases=1 Bus1=1086.1 kV=0.23 kW=1 PF=0.95
New Load.LOAD58 Phases=1 Bus1=1090.2 kV=0.23 kW=1 PF=0.95
New Load.LOAD59 Phases=1 Bus1=1096.3 kV=0.23 kW=1 PF=0.95
New Load.LOAD60 Phases=1 Bus1=1106.3 kV=0.23 kW=1 PF=0.95
New Load.LOAD61 Phases=1 Bus1=1107.3 kV=0.23 kW=1 PF=0.95
New Load.LOAD62 Phases=1 Bus1=1113.1 kV=0.23 kW=1 PF=0.95
New Load.LOAD63 Phases=1 Bus1=1123.2 kV=0.23 kW=1 PF=0.95
New Load.LOAD64 Phases=1 Bus1=1128.2 kV=0.23 kW=1 PF=0.95
New Load.LOAD65 Phases=1 Bus1=1129.2 kV=0.23 kW=1 PF=0.95
New Load.LOAD66 Phases=1 Bus1=1175.3 kV=0.23 kW=1 PF=0.95
New Load.LOAD67 Phases=1 Bus1=1187.1 kV=0.23 kW=1 PF=0.95
New Load.LOAD68 Phases=1 Bus1=1190.1 kV=0.23 kW=1 PF=0.95
New Load.LOAD69 Phases=1 Bus1=1212.1 kV=0.23 kW=1 PF=0.95
New Load.LOAD70 Phases=1 Bus1=1214.2 kV=0.23 kW=1 PF=0.95
New Load.LOAD71 Phases=1 Bus1=1239.2 kV=0.23 kW=1 PF=0.95
New Load.LOAD72 Phases=1 Bus1=1262.3 kV=0.23 kW=1 PF=0.95
New Load.LOAD73 Phases=1 Bus1=1275.3 kV=0.23 kW=1 PF=0.95
New Load.LOAD74 Phases=1 Bus1=1277.1 kV=0.23 kW=1 PF=0.95
New Load.LOAD75 Phases=1 Bus1=1288.1 kV=0.23 kW=1 PF=0.95
New Load.LOAD76 Phases=1 Bus1=1289.1 kV=0.23 kW=1 PF=0.95
New Load.LOAD77 Phases=1 Bus1=1292.2 kV=0.23 kW=1 PF=0.95
New Load.LOAD78 Phases=1 Bus1=1300.3 kV=0.23 kW=1 PF=0.95
New Load.LOAD79 Phases=1 Bus1=1314.3 kV=0.23 kW=1 PF=0.95
New Load.LOAD80 Phases=1 Bus1=1320.3 kV=0.23 kW=1 PF=0.95
New Load.LOAD81 Phases=1 Bus1=1338.1 kV=0.23 kW=1 PF=0.95
New Load.LOAD82 Phases=1 Bus1=1339.1 kV=0.23 kW=1 PF=0.95
New Load.LOAD83 Phases=1 Bus1=1359.3 kV=0.23 kW=1 PF=0.95
New Load.LOAD84 Phases=1 Bus1=1404.2 kV=0.23 kW=1 PF=0.95
New Load.LOAD85 Phases=1 Bus1=1470.1 kV=0.23 kW=1 PF=0.95
New Load.LOAD86 Phases=1 Bus1=1497.3 kV=0.23 kW=1 PF=0.95
New Load.LOAD87 Phases=1 Bus1=1505.2 kV=0.23 kW=1 PF=0.95
New Load.LOAD88 Phases=1 Bus1=1525.2 kV=0.23 kW=1 PF=0.95
New Load.LOAD89 Phases=1 Bus1=1532.2 kV=0.23 kW=1 PF=0.95
New Load.LOAD90 Phases=1 Bus1=1547.3 kV=0.23 kW=1 PF=0.95
New Load.LOAD91 Phases=1 Bus1=1553.1 kV=0.23 kW=1 PF=0.95
New Load.LOAD92 Phases=1 Bus1=1559.1 kV=0.23 kW=1 PF=0.95
New Load.LOAD93 Phases=1 Bus1=1583.3 kV=0.23 kW=1 PF=0.95
New Load.LOAD94 Phases=1 Bus1=1590.1 kV=0.23 kW=1 PF=0.95
New Load.LOAD95 Phases=1 Bus1=1607.2 kV=0.23 kW=1 PF=0.95
New Load.LOAD96 Phases=1 Bus1=1612.2 kV=0.23 kW=1 PF=0.95
New Load.LOAD97 Phases=1 Bus1=1614.3 kV=0.23 kW=1 PF=0.95
New Load.LOAD98 Phases=1 Bus1=1652.1 kV=0.23 kW=1 PF=0.95
New Load.LOAD99 Phases=1 Bus1=1666.1 kV=0.23 kW=1 PF=0.95
New Load.LOAD100 Phases=1 Bus1=1667.3 kV=0.23 kW=1 PF=0.95
New Load.LOAD101 Phases=1 Bus1=1668.3 kV=0.23 kW=1 PF=0.95
New Load.LOAD102 Phases=1 Bus1=1675.1 kV=0.23 kW=1 PF=0.95
New Load.LOAD103 Phases=1 Bus1=1688.3 kV=0.23 kW=1 PF=0.95
New Load.LOAD104 Phases=1 Bus1=1689.2 kV=0.23 kW=1 PF=0.95
New Load.LOAD105 Phases=1 Bus1=1691.3 kV=0.23 kW=1 PF=0.95
New Load.LOAD106 Phases=1 Bus1=1709.2 kV=0.23 kW=1 PF=0.95
New Load.LOAD107 Phases=1 Bus1=1742.2 kV=0.23 kW=1 PF=0.95
New Load.LOAD108 Phases=1 Bus1=1757.1 kV=0.23 kW=1 PF=0.95
New Load.LOAD109 Phases=1 Bus1=1765.1 kV=0.23 kW=1 PF=0.95
New Load.LOAD110 Phases=1 Bus1=1766.2 kV=0.23 kW=1 PF=0.95
New Load.LOAD111 Phases=1 Bus1=1772.1 kV=0.23 kW=1 PF=0.95
New Load.LOAD112 Phases=1 Bus1=1817.2 kV=0.23 kW=1 PF=0.95
New Load.LOAD113 Phases=1 Bus1=1833.1 kV=0.23 kW=1 PF=0.95
New Load.LOAD114 Phases=1 Bus1=1851.2 kV=0.23 kW=1 PF=0.95
New Load.LOAD115 Phases=1 Bus1=1862.3 kV=0.23 kW=1 PF=0.95
New Load.LOAD116 Phases=1 Bus1=1875.3 kV=0.23 kW=1 PF=0.95
New Load.LOAD117 Phases=1 Bus1=1880.1 kV=0.23 kW=1 PF=0.95
New Load.LOAD118 Phases=1 Bus1=1884.3 kV=0.23 kW=1 PF=0.95
New Load.LOAD119 Phases=1 Bus1=1908.2 kV=0.23 kW=1 PF=0.95
New Load.LOAD120 Phases=1 Bus1=1933.1 kV=0.23 kW=1 PF=0.95
New Load.LOAD121 Phases=1 Bus1=1947.2 kV=0.23 kW=1 PF=0.95
New Load.LOAD122 Phases=1 Bus1=1975.2 kV=0.23 kW=1 PF=0.95
New Load.LOAD123 Phases=1 Bus1=2001.3 kV=0.23 kW=1 PF=0.95
New Load.LOAD124 Phases=1 Bus1=2012.2 kV=0.23 kW=1 PF=0.95
New Load.LOAD125 Phases=1 Bus1=2031.3 kV=0.23 kW=1 PF=0.95
New Load.LOAD126 Phases=1 Bus1=2058.3 kV=0.23 kW=1 PF=0.95
New Load.LOAD127 Phases=1 Bus1=2093.1 kV=0.23 kW=1 PF=0.95
New Load.LOAD128 Phases=1 Bus1=2094.2 kV=0.23 kW=1 PF=0.95
New Load.LOAD129 Phases=1 Bus1=2097.1 kV=0.23 kW=1 PF=0.95
New Load.LOAD130 Phases=1 Bus1=2114.2 kV=0.23 kW=1 PF=0.95
New Load.LOAD131 Phases=1 Bus1=2129.3 kV=0.23 kW=1 PF=0.95
New Load.LOAD132 Phases=1 Bus1=2160.2 kV=0.23 kW=1 PF=0.95
New Load.LOAD133 Phases=1 Bus1=2178.3 kV=0.23 kW=1 PF=0.95
New Load.LOAD134 Phases=1 Bus1=2183.3 kV=0.23 kW=1 PF=0.95
New Load.LOAD135 Phases=1 Bus1=2192.1 kV=0.23 kW=1 PF=0.95
New Load.LOAD136 Phases=1 Bus1=2216.3 kV=0.23 kW=1 PF=0.95
New Load.LOAD137 Phases=1 Bus1=2217.1 kV=0.23 kW=1 PF=0.95
New Load.LOAD138 Phases=1 Bus1=2220.2 kV=0.23 kW=1 PF=0.95
New Load.LOAD139 Phases=1 Bus1=2229.2 kV=0.23 kW=1 PF=0.95
New Load.LOAD140 Phases=1 Bus1=2240.2 kV=0.23 kW=1 PF=0.95
New Load.LOAD141 Phases=1 Bus1=2251.3 kV=0.23 kW=1 PF=0.95
New Load.LOAD142 Phases=1 Bus1=2253.3 kV=0.23 kW=1 PF=0.95
